<?xml version="1.0" encoding="UTF-8"?>

<routes>
    <!-- <vType id="NDD" carFollowModel="IDMNEW" stepping="1" laneChangeModel="LCNEW" tau="0.2" accel="2.0" decel="4.0" length="5.0" minGap="2.0" maxSpeed="40.0" lcAccelLat="20000.0" actionStepLength="1.0"/>  -->
    <vType id="IDM" carFollowModel="IDM" stepping="1" laneChangeModel="SL2015" tau="1.0" accel="2.0" decel="4.0" length="5.0" width="1.8" minGap="2.0" maxSpeed="45.0" lcAccelLat="20000.0"/>
    <vType id="IDM_CAV" carFollowModel="IDM" stepping="1" laneChangeModel="SL2015" tau="1.0" accel="2.0" decel="4.0" length="5.0" width="1.8" minGap="2.0" maxSpeed="45.0" lcAccelLat="20000.0"/>
    <!-- <vType id="IDM" carFollowModel="IDM" stepping="1" laneChangeModel="SL2015" tau="0.2" accel="2.0" decel="4.0" length="5.0" minGap="2.0" maxSpeed="40.0" lcAccelLat="20000.0"/> -->
    <route edges="0to1" color="yellow" id="route_0"/>
    <!-- <flow id="flow1" departLane="0" begin="0.0" vehsPerHour="1361" route="route_0" type="IDM" departSpeed="30.0"/>
    <flow id="flow2" departLane="2" begin="0.0" vehsPerHour="1361" route="route_0" type="IDM" departSpeed="30.0"/>
    <flow id="flow3" departLane="1" begin="0.3" vehsPerHour="1361" route="route_0" type="IDM" departSpeed="30.0"/>
    <vehicle id="CAV2" type="IDM" depart="10" departSpeed="30.0" departLane="1" route="route_0" /> -->
</routes>