<?xml version="1.0" encoding="UTF-8"?>

<configuration>

    <input>
        <net-file value="3LaneHighway.net.xml"/>
        <route-files value="3LaneHighway.rou.xml"/>
    </input>

    <!-- <output>
	    <netstate-dump value="3LaneHighway.output.xml"/>
    </output> -->

</configuration>
